##########                 Name:              pet_lig
##########          Protonation:                 none
##########               SMILES:   FCCC1CCN(C2=NC3=NC4=CC=CC=C4N3C=C2)CC1
##########            Long Name:   NO_LONG_NAME
##########          FlexRecCode: 1
##########               Number:                    1
##########   Ligand Source File: /mnt/nfs/ex9/work/matt715/Symmetry/PET_Ligand/finished/pet_lig/0.db2.gz
##########           GlobalRank: 1
##########                 Rank:                    1
##########               Setnum:                   25
##########             Matchnum:                  703
##########                  OXR:   105.6590   134.5240   129.1300
##########                  OXR:   110.6790   134.2980   133.4370
##########                  OXR:   108.7640   135.1360   131.6350
##########                  OXR:   107.7280   135.1900   130.7400
##########                  OXS:     0.2810    -1.3555    -2.0531
##########                  OXS:    -3.5001    -5.7240    -5.4646
##########                  OXS:    -1.5159    -4.0150    -4.5507
##########                  OXS:    -0.7381    -3.1137    -3.8449
##########                Cloud:                    1
##########        Electrostatic:           -35.849133
##########                 Gist:             0.000000
##########        Van der Waals:            -8.671768
##########  Ligand Polar Desolv:            15.779071
########## Ligand Apolar Desolv:            -9.857843
##########         Total Strain:             9.390000
##########           Max Strain:             0.000000
########## Receptor Desolvation:             0.000000
########## Receptor Hydrophobic:             0.000000
##########          Lig-Lig vdW:            -9.015433
##########         Total Energy: -47.62
##########        Ligand Charge:             0.000000
##########            Arbitrary:    +999.9990
##########     heavy atom count:   22
##########           pose count:   20
##########        Ligand Energy:             0.000000
@<TRIPOS>MOLECULE
     pet_lig  none
          82    88  0  0  0
@<TRIPOS>ATOM
      1   F1            100.9314            130.9684            127.9211      F  1  LIG1  -0.2200
      2   C1            100.0551            131.9395            127.4248    C.3  1  LIG1   0.0600
      3   C2            100.3861            133.2945            128.0535    C.3  1  LIG1  -0.1500
      4   C3            101.8251            133.6804            127.7055    C.3  1  LIG1  -0.0900
      5   C4            102.1552            135.0365            128.3332    C.3  1  LIG1  -0.1300
      6   C5            103.5847            135.4358            127.9540    C.3  1  LIG1   0.1100
      7   N1            104.4975            134.3524            128.3435  N.pl3  1  LIG1  -0.5800
      8   C6            105.5944            134.6096            129.1399    C.2  1  LIG1   0.4800
      9   N2            106.0508            133.6752            129.9534    N.2  1  LIG1  -0.5400
     10   C7            107.1196            133.9008            130.7333    C.2  1  LIG1   0.5000
     11   N3            107.7365            133.1159            131.6048    N.2  1  LIG1  -0.5000
     12   C8            108.7738            133.7818            132.1653   C.ar  1  LIG1   0.1100
     13   C9            109.7322            133.4323            133.1230   C.ar  1  LIG1  -0.0900
     14  C10            110.6870            134.3484            133.5006   C.ar  1  LIG1  -0.1000
     15  C11            110.7072            135.6172            132.9397   C.ar  1  LIG1  -0.1200
     16  C12            109.7700            135.9789            131.9944   C.ar  1  LIG1  -0.0800
     17  C13            108.7999            135.0695            131.6002   C.ar  1  LIG1   0.0000
     18   N4            107.7487            135.1206            130.7014  N.pl3  1  LIG1  -0.4500
     19  C14            107.2951            136.1090            129.8730    C.2  1  LIG1   0.1700
     20  C15            106.2220            135.8728            129.0868    C.2  1  LIG1  -0.2600
     21  C16            104.2202            132.9899            127.8685    C.3  1  LIG1   0.1200
     22  C17            102.7835            132.6181            128.2488    C.3  1  LIG1  -0.1400
     23   H1             99.0299            131.6646            127.6728      H  1  LIG1   0.0700
     24   H2            100.1617            132.0057            126.3420      H  1  LIG1   0.0700
     25   H3            100.2794            133.2282            129.1362      H  1  LIG1   0.0800
     26   H4             99.7033            134.0509            127.6668      H  1  LIG1   0.0800
     27   H5            101.9315            133.7458            126.6227      H  1  LIG1   0.0800
     28   H6            102.0730            134.9651            129.4178      H  1  LIG1   0.0700
     29   H7            101.4574            135.7881            127.9638      H  1  LIG1   0.0800
     30   H8            103.6460            135.5959            126.8775      H  1  LIG1   0.0700
     31   H9            103.8596            136.3514            128.4779      H  1  LIG1   0.1100
     32  H10            109.7228            132.4464            133.5639      H  1  LIG1   0.1400
     33  H11            111.4263            134.0777            134.2398      H  1  LIG1   0.1300
     34  H12            111.4621            136.3267            133.2452      H  1  LIG1   0.1300
     35  H13            109.7919            136.9682            131.5617      H  1  LIG1   0.1200
     36  H14            107.7894            137.0689            129.8476      H  1  LIG1   0.1800
     37  H15            105.8486            136.6413            128.4261      H  1  LIG1   0.1700
     38  H16            104.3333            132.9506            126.7852      H  1  LIG1   0.0800
     39  H17            104.9143            132.2916            128.3360      H  1  LIG1   0.0900
     40  H18            102.5329            131.6482            127.8190      H  1  LIG1   0.0800
     41  H19            102.6954            132.5694            129.3341      H  1  LIG1   0.0700
     42   F2  101.18179959999999         131.3167034  132.66809999999998      F  1  LIG1  -0.2200
     43  C18         100.3239505         132.3044531  132.17180000000002    C.3  1  LIG1   0.0600
     44  C19         100.6806955         133.6531641            132.8005    C.3  1  LIG1  -0.1500
     45  C20         102.1270276  134.01172309999998            132.4525    C.3  1  LIG1  -0.0900
     46  C21  102.48289349999999  135.36155119999998            133.0802    C.3  1  LIG1  -0.1300
     47  C22         103.9199802  135.73369069999998             132.701    C.3  1  LIG1   0.1100
     48   N5         104.8121956  134.63294749999997  133.09050000000002  N.pl3  1  LIG1  -0.5800
     49  C23         105.9139824         134.8693064  133.88690000000003    C.2  1  LIG1   0.4800
     50   N6  106.35262879999999  133.92623479999997            134.7004    N.2  1  LIG1  -0.5400
     51  C24         107.4257152         134.1315276            135.4803    C.2  1  LIG1   0.5000
     52   N7  108.02770210000001         133.3349065  136.35180000000003    N.2  1  LIG1  -0.5000
     53  C25         109.0776542         133.9810978  136.91230000000002   C.ar  1  LIG1   0.1100
     54  C26         110.0294137         133.6133882              137.87   C.ar  1  LIG1  -0.0900
     55  C27         111.0016196          134.511347  138.24759999999998   C.ar  1  LIG1  -0.1000
     56  C28         111.0459268         135.7797632  137.68669999999997   C.ar  1  LIG1  -0.1200
     57  C29         110.1155991           136.15927            136.7414   C.ar  1  LIG1  -0.0800
     58  C30         109.1282205  135.26830189999998            136.3472   C.ar  1  LIG1   0.0000
     59   N8         108.0779914  135.33937469999998            135.4484  N.pl3  1  LIG1  -0.4500
     60  C31  107.64317100000001         136.3363931              134.62    C.2  1  LIG1   0.1700
     61  C32  106.56558319999999          136.120582            133.8338    C.2  1  LIG1  -0.2600
     62  C33         104.5090081         133.2757162            132.6155    C.3  1  LIG1   0.1200
     63  C34         103.0652439  132.93121349999998  132.99579999999997    C.3  1  LIG1  -0.1400
     64  H20          99.2935274         132.0490319            132.4198      H  1  LIG1   0.0700
     65  H21         100.4318083         132.3686277             131.089      H  1  LIG1   0.0700
     66  H22  100.57273579999999  133.58889139999997            133.8832      H  1  LIG1   0.0800
     67  H23         100.0122671  134.42253730000002  132.41379999999998      H  1  LIG1   0.0800
     68  H24         102.2346702         134.0751015            131.3697      H  1  LIG1   0.0800
     69  H25         102.3993369          135.291713            134.1648      H  1  LIG1   0.0700
     70  H26         101.7993739  136.12640939999997            132.7108      H  1  LIG1   0.0800
     71  H27         103.9843221  135.89262599999998            131.6245      H  1  LIG1   0.0700
     72  H28         104.2122766         136.6440676            133.2249      H  1  LIG1   0.1100
     73  H29  110.00128160000001  132.62766680000001            138.3109      H  1  LIG1   0.1400
     74  H30         111.7357763  134.22660029999997  138.98680000000002      H  1  LIG1   0.1300
     75  H31  111.81430730000001         136.4749201  137.99220000000003      H  1  LIG1   0.1300
     76  H32         110.1562958  137.14815389999998            136.3087      H  1  LIG1   0.1200
     77  H33         108.1557091         137.2869014            134.5946      H  1  LIG1   0.1800
     78  H34         106.2067847         136.8961766  133.17309999999998      H  1  LIG1   0.1700
     79  H35         104.6213614         133.2342673            131.5322      H  1  LIG1   0.0800
     80  H36         105.1898404  132.56422829999997  133.08300000000003      H  1  LIG1   0.0900
     81  H37         102.7962158         131.9660749             132.566      H  1  LIG1   0.0800
     82  H38  102.97621860000001         132.8841874            134.0811      H  1  LIG1   0.0700
@<TRIPOS>BOND
      1   1   2   1
      2   2   3   1
      3   2  23   1
      4   2  24   1
      5   3   4   1
      6   3  25   1
      7   3  26   1
      8   4  22   1
      9   4   5   1
     10   4  27   1
     11   5   6   1
     12   5  28   1
     13   5  29   1
     14   6   7   1
     15   6  30   1
     16   6  31   1
     17   7   8   1
     18   7  21   1
     19   8  20   1
     20   8   9   2
     21   9  10   1
     22  10  18   1
     23  10  11   2
     24  11  12   1
     25  12  17  ar
     26  12  13  ar
     27  13  14  ar
     28  13  32   1
     29  14  15  ar
     30  14  33   1
     31  15  16  ar
     32  15  34   1
     33  16  17  ar
     34  16  35   1
     35  17  18   1
     36  18  19   1
     37  19  20   2
     38  19  36   1
     39  20  37   1
     40  21  22   1
     41  21  38   1
     42  21  39   1
     43  22  40   1
     44  22  41   1
     45  42  43   1
     46  43  44   1
     46  43  64   1
     46  43  65   1
     47  44  45   1
     47  44  66   1
     47  44  67   1
     48  45  63   1
     48  45  46   1
     48  45  68   1
     49  46  47   1
     49  46  69   1
     49  46  70   1
     50  47  48   1
     50  47  71   1
     50  47  72   1
     51  48  49   1
     51  48  62   1
     52  49  61   1
     52  49  50   2
     53  50  51   1
     54  51  59   1
     54  51  52   2
     55  52  53   1
     56  53  58  ar
     56  53  54  ar
     57  54  55  ar
     57  54  73   1
     58  55  56  ar
     58  55  74   1
     59  56  57  ar
     59  56  75   1
     60  57  58  ar
     60  57  76   1
     61  58  59   1
     62  59  60   1
     63  60  61   2
     63  60  77   1
     64  61  78   1
     65  62  63   1
     65  62  79   1
     65  62  80   1
     66  63  81   1
     66  63  82   1
